# generated by atomlib

data_

_audit_creation_method        'Generated by atomlib'

loop_
 _space_group_symop_id
 _space_group_symop_operation_xyz
 1  x,y,z

_cell_length_a                3.13000000
_cell_length_b                3.13000000
_cell_length_c                5.02000000
_cell_angle_alpha             90.00000000
_cell_angle_beta              90.00000000
_cell_angle_gamma             120.00000000
_cell_volume                  42.59150868

loop_
 _atom_site_type_symbol
 _atom_site_fract_x
 _atom_site_fract_y
 _atom_site_fract_z
 Al   0.66659156  0.33318312  0.49898406
 Al   0.33318294  0.66636588  0.99868068
 N    0.66659156  0.33318312  0.88017869
 N    0.33318294  0.66636588  0.38048207

